Version 4
SHEET 1 1348 1444
WIRE -352 80 -352 32
WIRE -128 112 -160 112
WIRE 128 112 -128 112
WIRE 384 112 272 112
WIRE 464 112 384 112
WIRE 384 128 384 112
WIRE 464 128 464 112
WIRE -160 192 -160 112
WIRE 240 192 240 144
WIRE 160 224 160 176
WIRE 160 224 112 224
WIRE 112 256 112 224
WIRE 384 256 384 208
WIRE 464 256 464 192
WIRE 192 272 192 176
WIRE 240 272 240 256
WIRE 240 272 192 272
WIRE 240 304 240 272
WIRE -160 336 -160 272
WIRE -832 400 -864 400
WIRE -720 400 -752 400
WIRE -672 400 -720 400
WIRE -720 432 -720 400
WIRE -144 448 -176 448
WIRE 112 448 -144 448
WIRE 368 448 256 448
WIRE 448 448 368 448
WIRE 368 464 368 448
WIRE 448 464 448 448
WIRE -176 528 -176 448
WIRE 224 528 224 480
WIRE -720 544 -720 512
WIRE 144 560 144 512
WIRE 144 560 96 560
WIRE 96 592 96 560
WIRE 368 592 368 544
WIRE 448 592 448 528
WIRE 176 608 176 512
WIRE 224 608 224 592
WIRE 224 608 176 608
WIRE 224 640 224 608
WIRE -176 672 -176 608
WIRE -144 848 -176 848
WIRE 112 848 -144 848
WIRE 368 848 256 848
WIRE 448 848 368 848
WIRE 368 864 368 848
WIRE 448 864 448 848
WIRE -176 928 -176 848
WIRE 224 928 224 880
WIRE 144 960 144 912
WIRE 144 960 96 960
WIRE 96 992 96 960
WIRE 368 992 368 944
WIRE 448 992 448 928
WIRE 176 1008 176 912
WIRE 224 1008 224 992
WIRE 224 1008 176 1008
WIRE 224 1040 224 1008
WIRE -176 1072 -176 1008
WIRE -144 1200 -176 1200
WIRE 112 1200 -144 1200
WIRE 368 1200 256 1200
WIRE 448 1200 368 1200
WIRE 368 1216 368 1200
WIRE 448 1216 448 1200
WIRE -176 1280 -176 1200
WIRE 224 1280 224 1232
WIRE 144 1312 144 1264
WIRE 144 1312 96 1312
WIRE 96 1344 96 1312
WIRE 368 1344 368 1296
WIRE 448 1344 448 1280
WIRE 176 1360 176 1264
WIRE 224 1360 224 1344
WIRE 224 1360 176 1360
WIRE 224 1392 224 1360
WIRE -176 1424 -176 1360
FLAG 176 64 vcc
FLAG 224 80 vee
FLAG 240 304 0
FLAG 384 256 0
FLAG 464 256 0
FLAG 112 256 sq
FLAG 464 112 sH1
FLAG -160 336 0
FLAG -448 -96 vcc
FLAG -448 176 vee
FLAG -352 80 0
FLAG 160 400 vcc
FLAG 208 416 vee
FLAG 224 640 0
FLAG 368 592 0
FLAG 448 592 0
FLAG 96 592 sq
FLAG 448 448 sH2
FLAG -176 672 0
FLAG 160 800 vcc
FLAG 208 816 vee
FLAG 224 1040 0
FLAG 368 992 0
FLAG 448 992 0
FLAG 96 992 sq
FLAG 448 848 sH3
FLAG -176 1072 0
FLAG 160 1152 vcc
FLAG 208 1168 vee
FLAG 224 1392 0
FLAG 368 1344 0
FLAG 448 1344 0
FLAG 96 1344 sq
FLAG 448 1200 sH4
FLAG -176 1424 0
FLAG -720 544 0
FLAG -672 400 sq
FLAG -864 400 vcc
FLAG -128 112 Vin1
FLAG -144 448 Vin2
FLAG -144 848 Vin3
FLAG -144 1200 Vin4
SYMBOL cap 224 192 R0
SYMATTR InstName C1
SYMATTR Value {csh1}
SYMBOL res 368 112 R0
SYMATTR InstName R1
SYMATTR Value 10k
SYMBOL cap 448 128 R0
SYMATTR InstName C2
SYMATTR Value 1p
SYMBOL LF398H 176 112 R0
SYMATTR InstName U1
SYMBOL voltage -160 176 R0
WINDOW 123 0 0 Left 0
WINDOW 39 0 0 Left 0
SYMATTR InstName V1
SYMATTR Value SINE(0 {vmax} 120k)
SYMBOL TCLib\\supply -480 80 R0
SYMATTR InstName U5
SYMBOL cap 208 528 R0
SYMATTR InstName C4
SYMATTR Value {csh2}
SYMBOL res 352 448 R0
SYMATTR InstName R15
SYMATTR Value 10k
SYMBOL cap 432 464 R0
SYMATTR InstName C5
SYMATTR Value 1p
SYMBOL LF398H 160 448 R0
SYMATTR InstName U6
SYMBOL voltage -176 512 R0
WINDOW 123 0 0 Left 0
WINDOW 39 0 0 Left 0
SYMATTR InstName V2
SYMATTR Value SINE(0 {vmax} 833.333)
SYMBOL cap 208 928 R0
SYMATTR InstName C6
SYMATTR Value {csh2}
SYMBOL res 352 848 R0
SYMATTR InstName R16
SYMATTR Value 10k
SYMBOL cap 432 864 R0
SYMATTR InstName C7
SYMATTR Value 1p
SYMBOL LF398H 160 848 R0
SYMATTR InstName U7
SYMBOL voltage -176 912 R0
WINDOW 123 0 0 Left 0
WINDOW 39 0 0 Left 0
SYMATTR InstName V3
SYMATTR Value SINE(0 {vmax} 120k)
SYMBOL cap 208 1280 R0
SYMATTR InstName C8
SYMATTR Value {csh1}
SYMBOL res 352 1200 R0
SYMATTR InstName R17
SYMATTR Value 10k
SYMBOL cap 432 1216 R0
SYMATTR InstName C9
SYMATTR Value 1p
SYMBOL LF398H 160 1200 R0
SYMATTR InstName U8
SYMBOL voltage -176 1264 R0
WINDOW 123 0 0 Left 0
WINDOW 39 0 0 Left 0
SYMATTR InstName V4
SYMATTR Value SINE(0 {vmax}  833.333)
SYMBOL TCLib\\square -720 480 R0
SYMATTR Value Vpp=15 Freq=600k Voff=7.5 DC=0.5
SYMATTR InstName U9
SYMBOL res -848 416 R270
WINDOW 0 27 56 VTop 2
WINDOW 3 2 56 VBottom 2
SYMATTR InstName R2
SYMATTR Value 1k
TEXT -160 -64 Left 6 ;SAMPLE AND HOLD
TEXT -712 344 Left 2 !.tran 0 90u 0 500p
TEXT -720 280 Left 2 !.param csh1=100p csh2=56n vmax=5
