Version 4
SHEET 1 5808 1384
WIRE -496 -608 -624 -608
WIRE -208 -608 -432 -608
WIRE 208 -608 80 -608
WIRE 496 -608 272 -608
WIRE 944 -608 816 -608
WIRE 1232 -608 1008 -608
WIRE -720 -496 -800 -496
WIRE -624 -496 -624 -608
WIRE -624 -496 -640 -496
WIRE -608 -496 -624 -496
WIRE -512 -496 -528 -496
WIRE -384 -496 -512 -496
WIRE -16 -496 -48 -496
WIRE 80 -496 80 -608
WIRE 80 -496 64 -496
WIRE 96 -496 80 -496
WIRE 192 -496 176 -496
WIRE 320 -496 192 -496
WIRE 720 -496 688 -496
WIRE 816 -496 816 -608
WIRE 816 -496 800 -496
WIRE 832 -496 816 -496
WIRE 928 -496 912 -496
WIRE 1056 -496 928 -496
WIRE -208 -464 -208 -608
WIRE -208 -464 -272 -464
WIRE -160 -464 -208 -464
WIRE -48 -464 -48 -496
WIRE -48 -464 -64 -464
WIRE 496 -464 496 -608
WIRE 496 -464 432 -464
WIRE 544 -464 496 -464
WIRE 688 -464 688 -496
WIRE 688 -464 640 -464
WIRE 1232 -464 1232 -608
WIRE 1232 -464 1168 -464
WIRE 1312 -464 1232 -464
WIRE -384 -432 -416 -432
WIRE 320 -432 288 -432
WIRE 1056 -432 1024 -432
WIRE -416 -336 -416 -432
WIRE -208 -336 -208 -464
WIRE -208 -336 -416 -336
WIRE 288 -336 288 -432
WIRE 496 -336 496 -464
WIRE 496 -336 288 -336
WIRE 1024 -336 1024 -432
WIRE 1232 -336 1232 -464
WIRE 1232 -336 1024 -336
WIRE -512 -304 -512 -496
WIRE 192 -304 192 -496
WIRE 928 -304 928 -496
WIRE -1024 -256 -1024 -288
WIRE -512 -192 -512 -240
WIRE 192 -192 192 -240
WIRE 928 -192 928 -240
WIRE -1184 0 -1184 -64
WIRE -1184 112 -1184 80
FLAG -1184 112 0
FLAG -512 -192 0
FLAG -1024 -256 0
FLAG -1120 -416 vcc
FLAG -336 -416 vcc
FLAG -1120 -144 vee
FLAG -336 -512 vee
FLAG 368 -416 vcc
FLAG 368 -512 vee
FLAG 928 -192 0
FLAG 1104 -416 vcc
FLAG 1104 -512 vee
FLAG -112 -496 vcc
FLAG -112 -432 vee
FLAG 592 -496 vcc
FLAG 592 -432 vee
FLAG -800 -496 Vsig
FLAG -1184 -64 Vsig
FLAG 192 -192 0
SYMBOL res -736 -480 R270
WINDOW 0 27 56 VTop 2
WINDOW 3 2 56 VBottom 2
SYMATTR InstName RF1
SYMATTR Value {r1}
SYMBOL res -624 -480 R270
WINDOW 0 27 56 VTop 2
WINDOW 3 2 56 VBottom 2
SYMATTR InstName Rf2
SYMATTR Value {r2}
SYMBOL cap -528 -304 R0
SYMATTR InstName CF2
SYMATTR Value {c2}
SYMBOL cap -496 -592 R270
WINDOW 0 32 32 VTop 2
WINDOW 3 0 32 VBottom 2
SYMATTR InstName CF1
SYMATTR Value {c1}
SYMBOL voltage -1184 -16 R0
WINDOW 123 24 124 Left 2
WINDOW 39 0 0 Left 0
SYMATTR Value2 AC 1
SYMATTR InstName V1
SYMATTR Value SINE(0.5 5 50k)
SYMBOL TCLib\\supply -1152 -240 R0
SYMATTR InstName U2
SYMBOL res -32 -480 R270
WINDOW 0 27 56 VTop 2
WINDOW 3 2 56 VBottom 2
SYMATTR InstName RF3
SYMATTR Value {r12}
SYMBOL res 80 -480 R270
WINDOW 0 27 56 VTop 2
WINDOW 3 2 56 VBottom 2
SYMATTR InstName RF4
SYMATTR Value {r22}
SYMBOL cap 208 -592 R270
WINDOW 0 32 32 VTop 2
WINDOW 3 0 32 VBottom 2
SYMATTR InstName CF4
SYMATTR Value {c12}
SYMBOL res 704 -480 R270
WINDOW 0 27 56 VTop 2
WINDOW 3 2 56 VBottom 2
SYMATTR InstName RF5
SYMATTR Value {r13}
SYMBOL res 816 -480 R270
WINDOW 0 27 56 VTop 2
WINDOW 3 2 56 VBottom 2
SYMATTR InstName RF6
SYMATTR Value {r23}
SYMBOL cap 912 -304 R0
SYMATTR InstName CF5
SYMATTR Value {c23}
SYMBOL cap 944 -592 R270
WINDOW 0 32 32 VTop 2
WINDOW 3 0 32 VBottom 2
SYMATTR InstName CF6
SYMATTR Value {c13}
SYMBOL buffer -128 -464 R0
SYMATTR InstName U3
SYMBOL buffer 576 -464 R0
SYMATTR InstName U5
SYMBOL cap 176 -304 R0
SYMATTR InstName CF3
SYMATTR Value {c22}
SYMBOL TCLib\\LM833 -192 -416 M180
SYMATTR InstName U1
SYMBOL TCLib\\LM833 512 -416 M180
SYMATTR InstName U4
SYMBOL TCLib\\LM833 1248 -416 M180
SYMATTR InstName U6
TEXT -2104 1288 Left 2 !.param r1= 1000 r2= 3300 c1= 9.37252963044761e-9 c2= 1.26633041302148e-10 r12= 1000 r22= 3300 c12= 3.42961110920421e-9 c22= 5.31302556815265e-10 r13= 1000 r23= 3300 c13= 2.44095363478539e-9 c23= 1.41827028406999e-9
TEXT -2104 1344 Left 2 ;.tran 0 1m 50u
TEXT -224 -728 Left 6 ;FILTRO ANTIALIASING
TEXT -2104 1368 Left 2 !.ac dec 1000 1 100Meg
