Version 4
SHEET 1 3252 680
WIRE 0 -144 -128 -144
WIRE 288 -144 64 -144
WIRE 704 -144 576 -144
WIRE 992 -144 768 -144
WIRE 1440 -144 1312 -144
WIRE 1728 -144 1504 -144
WIRE -464 -48 -464 -80
WIRE -224 -32 -304 -32
WIRE -128 -32 -128 -144
WIRE -128 -32 -144 -32
WIRE -112 -32 -128 -32
WIRE -16 -32 -32 -32
WIRE 112 -32 -16 -32
WIRE 480 -32 448 -32
WIRE 576 -32 576 -144
WIRE 576 -32 560 -32
WIRE 592 -32 576 -32
WIRE 688 -32 672 -32
WIRE 816 -32 688 -32
WIRE 1216 -32 1184 -32
WIRE 1312 -32 1312 -144
WIRE 1312 -32 1296 -32
WIRE 1328 -32 1312 -32
WIRE 1424 -32 1408 -32
WIRE 1552 -32 1424 -32
WIRE 288 0 288 -144
WIRE 288 0 224 0
WIRE 336 0 288 0
WIRE 448 0 448 -32
WIRE 448 0 432 0
WIRE 992 0 992 -144
WIRE 992 0 928 0
WIRE 1040 0 992 0
WIRE 1184 0 1184 -32
WIRE 1184 0 1136 0
WIRE 1728 0 1728 -144
WIRE 1728 0 1664 0
WIRE 1776 0 1728 0
WIRE 1824 0 1776 0
WIRE 2000 0 1920 0
WIRE -304 32 -304 -32
WIRE 112 32 80 32
WIRE 816 32 784 32
WIRE 1552 32 1520 32
WIRE 80 128 80 32
WIRE 288 128 288 0
WIRE 288 128 80 128
WIRE 784 128 784 32
WIRE 992 128 992 0
WIRE 992 128 784 128
WIRE 1520 128 1520 32
WIRE 1728 128 1728 0
WIRE 1728 128 1520 128
WIRE -304 144 -304 112
WIRE -16 160 -16 -32
WIRE 688 160 688 -32
WIRE 1424 160 1424 -32
WIRE -16 272 -16 224
WIRE 688 272 688 224
WIRE 1424 272 1424 224
FLAG -304 144 0
FLAG -16 272 0
FLAG -464 -48 0
FLAG -560 -208 vcc
FLAG 160 48 vcc
FLAG -560 64 vee
FLAG 160 -48 vee
FLAG 688 272 0
FLAG 864 48 vcc
FLAG 864 -48 vee
FLAG 1424 272 0
FLAG 1600 48 vcc
FLAG 1600 -48 vee
FLAG 384 -32 vcc
FLAG 384 32 vee
FLAG 1088 -32 vcc
FLAG 1088 32 vee
FLAG 1872 -32 vcc
FLAG 1872 32 vee
FLAG 1776 0 Vo_fil
FLAG -304 -32 Vin
SYMBOL TCLib\\TL082 304 48 M180
SYMATTR InstName U1
SYMBOL res -240 -16 R270
WINDOW 0 27 56 VTop 2
WINDOW 3 2 56 VBottom 2
SYMATTR InstName R1
SYMATTR Value {mc(r1, tolR)}
SYMBOL res -128 -16 R270
WINDOW 0 27 56 VTop 2
WINDOW 3 2 56 VBottom 2
SYMATTR InstName R2
SYMATTR Value {mc(r2, tolR)}
SYMBOL cap -32 160 R0
SYMATTR InstName C2
SYMATTR Value {c2}
SYMBOL cap 0 -128 R270
WINDOW 0 32 32 VTop 2
WINDOW 3 0 32 VBottom 2
SYMATTR InstName C1
SYMATTR Value {mc(c1, tolC)}
SYMBOL voltage -304 16 R0
WINDOW 123 24 124 Left 2
WINDOW 39 0 0 Left 0
SYMATTR Value2 AC 1
SYMATTR InstName V1
SYMATTR Value SINE(0.5 0.5 1k)
SYMBOL TCLib\\supply -592 -32 R0
SYMATTR InstName U2
SYMATTR Value Vp=5
SYMATTR Value2 Vn=5
SYMBOL TCLib\\TL082 1008 48 M180
SYMATTR InstName U4
SYMBOL res 464 -16 R270
WINDOW 0 27 56 VTop 2
WINDOW 3 2 56 VBottom 2
SYMATTR InstName R3
SYMATTR Value {mc(r12, tolR)}
SYMBOL res 576 -16 R270
WINDOW 0 27 56 VTop 2
WINDOW 3 2 56 VBottom 2
SYMATTR InstName R4
SYMATTR Value {mc(r22, tolR)}
SYMBOL cap 672 160 R0
SYMATTR InstName C3
SYMATTR Value {c22}
SYMBOL cap 704 -128 R270
WINDOW 0 32 32 VTop 2
WINDOW 3 0 32 VBottom 2
SYMATTR InstName C4
SYMATTR Value {c12}
SYMBOL TCLib\\TL082 1744 48 M180
SYMATTR InstName U6
SYMBOL res 1200 -16 R270
WINDOW 0 27 56 VTop 2
WINDOW 3 2 56 VBottom 2
SYMATTR InstName R5
SYMATTR Value {mc(r13, tolR)}
SYMBOL res 1312 -16 R270
WINDOW 0 27 56 VTop 2
WINDOW 3 2 56 VBottom 2
SYMATTR InstName R6
SYMATTR Value {mc(r23, tolR)}
SYMBOL cap 1408 160 R0
SYMATTR InstName C5
SYMATTR Value {c23}
SYMBOL cap 1440 -128 R270
WINDOW 0 32 32 VTop 2
WINDOW 3 0 32 VBottom 2
SYMATTR InstName C6
SYMATTR Value {c13}
SYMBOL buffer 368 0 R0
SYMATTR InstName U3
SYMBOL buffer 1072 0 R0
SYMATTR InstName U5
SYMBOL buffer 1856 0 R0
SYMATTR InstName U7
TEXT -928 336 Left 2 ;.param r1= 1000 r2= 3300 c1= 9.37252963044761e-9 c2= 1.26633041302148e-10 r12= 1000 r22= 3300 c12= 3.42961110920421e-9 c22= 5.31302556815265e-10 r13= 1000 r23= 3300 c13= 2.44095363478539e-9 c23= 1.41827028406999e-9
TEXT -624 368 Left 2 !.ac dec 1000 1 100Meg
TEXT -928 392 Left 2 ;.tran 0 2m 10u
TEXT -928 424 Left 2 !.param tolR=0.05
TEXT -928 456 Left 2 !.param tolC=0.08
TEXT -928 488 Left 2 !.step param run 1 30 1
TEXT -928 528 Left 2 !.param r1= 1000 r2= 3300 c1= 10n c2= 120p r12= 1000 r22= 3300 c12= 3.3n c22= 560p r13= 1000 r23= 3300 c13= 2.2n c23= 1.5n
