Version 4
SHEET 1 2568 680
WIRE 0 -144 -128 -144
WIRE 288 -144 64 -144
WIRE 1072 -144 944 -144
WIRE 1360 -144 1136 -144
WIRE 2144 -144 2016 -144
WIRE 2432 -144 2208 -144
WIRE -464 -48 -464 -80
WIRE -224 -32 -304 -32
WIRE -128 -32 -128 -144
WIRE -128 -32 -144 -32
WIRE -112 -32 -128 -32
WIRE -16 -32 -32 -32
WIRE 112 -32 -16 -32
WIRE 848 -32 816 -32
WIRE 944 -32 944 -144
WIRE 944 -32 928 -32
WIRE 960 -32 944 -32
WIRE 1056 -32 1040 -32
WIRE 1184 -32 1056 -32
WIRE 1920 -32 1888 -32
WIRE 2016 -32 2016 -144
WIRE 2016 -32 2000 -32
WIRE 2032 -32 2016 -32
WIRE 2128 -32 2112 -32
WIRE 2256 -32 2128 -32
WIRE 288 0 288 -144
WIRE 288 0 224 0
WIRE 528 0 288 0
WIRE 816 0 816 -32
WIRE 816 0 624 0
WIRE 1360 0 1360 -144
WIRE 1360 0 1296 0
WIRE 1568 0 1360 0
WIRE 1888 0 1888 -32
WIRE 1888 0 1664 0
WIRE 2432 0 2432 -144
WIRE 2432 0 2368 0
WIRE -304 32 -304 -32
WIRE 112 32 80 32
WIRE 1184 32 1152 32
WIRE 1888 32 1888 0
WIRE 2256 32 2224 32
WIRE 80 128 80 32
WIRE 288 128 288 0
WIRE 288 128 80 128
WIRE 1152 128 1152 32
WIRE 1360 128 1360 0
WIRE 1360 128 1152 128
WIRE 2224 128 2224 32
WIRE 2432 128 2432 0
WIRE 2432 128 2224 128
WIRE -304 144 -304 112
WIRE -16 160 -16 -32
WIRE 1056 160 1056 -32
WIRE 2128 160 2128 -32
WIRE -16 272 -16 224
WIRE 1056 272 1056 224
WIRE 2128 272 2128 224
FLAG -304 144 0
FLAG -16 272 0
FLAG -464 -48 0
FLAG -560 -208 vcc
FLAG 160 48 vcc
FLAG -560 64 vee
FLAG 160 -48 vee
FLAG 1056 272 0
FLAG 1232 48 vcc
FLAG 1232 -48 vee
FLAG 2128 272 0
FLAG 2304 48 vcc
FLAG 2304 -48 vee
FLAG 576 -32 vcc
FLAG 576 32 vee
FLAG 1616 -32 vcc
FLAG 1616 32 vee
DATAFLAG 416 -16 ""
SYMBOL TCLib\\TL082 304 48 M180
SYMATTR InstName U1
SYMBOL res -240 -16 R270
WINDOW 0 27 56 VTop 2
WINDOW 3 2 56 VBottom 2
SYMATTR InstName R1
SYMATTR Value {r1}
SYMBOL res -128 -16 R270
WINDOW 0 27 56 VTop 2
WINDOW 3 2 56 VBottom 2
SYMATTR InstName R2
SYMATTR Value {r2}
SYMBOL cap -32 160 R0
SYMATTR InstName C2
SYMATTR Value {c2}
SYMBOL cap 0 -128 R270
WINDOW 0 32 32 VTop 2
WINDOW 3 0 32 VBottom 2
SYMATTR InstName C1
SYMATTR Value {c1}
SYMBOL voltage -304 16 R0
WINDOW 123 24 124 Left 2
WINDOW 39 0 0 Left 0
SYMATTR Value2 AC 1
SYMATTR InstName V1
SYMATTR Value 1
SYMBOL TCLib\\supply -592 -32 R0
SYMATTR InstName U2
SYMBOL TCLib\\TL082 1376 48 M180
SYMATTR InstName U4
SYMBOL res 832 -16 R270
WINDOW 0 27 56 VTop 2
WINDOW 3 2 56 VBottom 2
SYMATTR InstName R3
SYMATTR Value {r12}
SYMBOL res 944 -16 R270
WINDOW 0 27 56 VTop 2
WINDOW 3 2 56 VBottom 2
SYMATTR InstName R4
SYMATTR Value {r22}
SYMBOL cap 1040 160 R0
SYMATTR InstName C3
SYMATTR Value {c22}
SYMBOL cap 1072 -128 R270
WINDOW 0 32 32 VTop 2
WINDOW 3 0 32 VBottom 2
SYMATTR InstName C4
SYMATTR Value {c12}
SYMBOL TCLib\\TL082 2448 48 M180
SYMATTR InstName U6
SYMBOL res 1904 -16 R270
WINDOW 0 27 56 VTop 2
WINDOW 3 2 56 VBottom 2
SYMATTR InstName R5
SYMATTR Value {r13}
SYMBOL res 2016 -16 R270
WINDOW 0 27 56 VTop 2
WINDOW 3 2 56 VBottom 2
SYMATTR InstName R6
SYMATTR Value {r23}
SYMBOL cap 2112 160 R0
SYMATTR InstName C5
SYMATTR Value {c23}
SYMBOL cap 2144 -128 R270
WINDOW 0 32 32 VTop 2
WINDOW 3 0 32 VBottom 2
SYMATTR InstName C6
SYMATTR Value {c13}
SYMBOL buffer 560 0 R0
SYMATTR InstName U3
SYMBOL buffer 1600 0 R0
SYMATTR InstName U5
TEXT -928 336 Left 2 !.param r1= 1000 r2= 3300 c1= 4.54215100499813e-8 c2= 6.13690739858604e-10 r12= 1000 r22= 3300 c12= 1.66206674856744e-8 c22= 2.57481266084732e-9 r13= 1000 r23= 3300 c13= 1.18294212783054e-8 c23= 6.87326104787085e-9
TEXT -624 368 Left 2 !.ac dec 1000 14k 40k
