Version 4
SHEET 1 1240 680
WIRE -784 -48 -912 -48
WIRE -496 -48 -720 -48
WIRE -80 -48 -208 -48
WIRE 208 -48 -16 -48
WIRE 656 -48 528 -48
WIRE 944 -48 720 -48
WIRE -1008 64 -1088 64
WIRE -912 64 -912 -48
WIRE -912 64 -928 64
WIRE -896 64 -912 64
WIRE -800 64 -816 64
WIRE -672 64 -800 64
WIRE -304 64 -336 64
WIRE -208 64 -208 -48
WIRE -208 64 -224 64
WIRE -192 64 -208 64
WIRE -96 64 -112 64
WIRE 32 64 -96 64
WIRE 432 64 400 64
WIRE 528 64 528 -48
WIRE 528 64 512 64
WIRE 544 64 528 64
WIRE 640 64 624 64
WIRE 768 64 640 64
WIRE -496 96 -496 -48
WIRE -496 96 -560 96
WIRE -448 96 -496 96
WIRE -336 96 -336 64
WIRE -336 96 -352 96
WIRE 208 96 208 -48
WIRE 208 96 144 96
WIRE 256 96 208 96
WIRE 400 96 400 64
WIRE 400 96 352 96
WIRE 944 96 944 -48
WIRE 944 96 880 96
WIRE 976 96 944 96
WIRE 1136 96 1072 96
WIRE -672 128 -704 128
WIRE 32 128 0 128
WIRE 768 128 736 128
WIRE -704 224 -704 128
WIRE -496 224 -496 96
WIRE -496 224 -704 224
WIRE 0 224 0 128
WIRE 208 224 208 96
WIRE 208 224 0 224
WIRE 736 224 736 128
WIRE 944 224 944 96
WIRE 944 224 736 224
WIRE -800 256 -800 64
WIRE -96 256 -96 64
WIRE 640 256 640 64
WIRE -800 368 -800 320
WIRE 640 368 640 320
FLAG -800 368 0
FLAG -624 144 vcc
FLAG -624 48 vee
FLAG 80 144 vcc
FLAG 80 48 vee
FLAG 640 368 0
FLAG 816 144 vcc
FLAG 816 48 vee
FLAG -400 64 vcc
FLAG -400 128 vee
FLAG 304 64 vcc
FLAG 304 128 vee
FLAG 1024 64 vcc
FLAG 1024 128 vee
FLAG -1088 64 Vsig
FLAG 1136 96 Vsig_fil
SYMBOL TCLib\\TL082 -480 144 M180
SYMATTR InstName U1
SYMBOL res -1024 80 R270
WINDOW 0 27 56 VTop 2
WINDOW 3 2 56 VBottom 2
SYMATTR InstName RF1
SYMATTR Value {r1}
SYMBOL res -912 80 R270
WINDOW 0 27 56 VTop 2
WINDOW 3 2 56 VBottom 2
SYMATTR InstName Rf2
SYMATTR Value {r2}
SYMBOL cap -816 256 R0
SYMATTR InstName CF1
SYMATTR Value {c2}
SYMBOL cap -784 -32 R270
WINDOW 0 32 32 VTop 2
WINDOW 3 0 32 VBottom 2
SYMATTR InstName CF2
SYMATTR Value {c1}
SYMBOL TCLib\\TL082 224 144 M180
SYMATTR InstName U2
SYMBOL res -320 80 R270
WINDOW 0 27 56 VTop 2
WINDOW 3 2 56 VBottom 2
SYMATTR InstName RF3
SYMATTR Value {r12}
SYMBOL res -208 80 R270
WINDOW 0 27 56 VTop 2
WINDOW 3 2 56 VBottom 2
SYMATTR InstName RF4
SYMATTR Value {r22}
SYMBOL cap -80 -32 R270
WINDOW 0 32 32 VTop 2
WINDOW 3 0 32 VBottom 2
SYMATTR InstName CF3
SYMATTR Value {c12}
SYMBOL TCLib\\TL082 960 144 M180
SYMATTR InstName U3
SYMBOL res 416 80 R270
WINDOW 0 27 56 VTop 2
WINDOW 3 2 56 VBottom 2
SYMATTR InstName RF5
SYMATTR Value {r13}
SYMBOL res 528 80 R270
WINDOW 0 27 56 VTop 2
WINDOW 3 2 56 VBottom 2
SYMATTR InstName RF6
SYMATTR Value {r23}
SYMBOL cap 624 256 R0
SYMATTR InstName CF4
SYMATTR Value {c23}
SYMBOL cap 656 -32 R270
WINDOW 0 32 32 VTop 2
WINDOW 3 0 32 VBottom 2
SYMATTR InstName CF5
SYMATTR Value {c13}
SYMBOL buffer -416 96 R0
SYMATTR InstName U4
SYMBOL buffer 288 96 R0
SYMATTR InstName U5
SYMBOL buffer 1008 96 R0
SYMATTR InstName U6
TEXT -512 -168 Left 6 ;FILTRO ANTIALIASING
